LTspice 26.0.1 for Windows
Circuit: H:\Mon Drive\2025-2026_polytech_sorbonne\S6\UE-Electronique\Composants_et_circuit_microelectrique\TP\Sujet_TP_YEK\Simulation\Simu_C\Simu_C.net
Start Time: Thu Mar 19 10:36:32 2026
solver = Normal
Maximum thread count: 12
tnom = 27
temp = 27
method = trap
Warning: Pd = 0 is less than W.
Warning: Ps = 0 is less than W.
.step Vgs=2.5 
.step Vgs=3 
.step Vgs=3.5 
Total elapsed time: 0.555 seconds.

Files loaded:
H:\Mon Drive\2025-2026_polytech_sorbonne\S6\UE-Electronique\Composants_et_circuit_microelectrique\TP\Sujet_TP_YEK\Simulation\Simu_C\Simu_C.net
C:\Users\elkat\AppData\Local\LTspice\lib\cmp\standard.mos

