LTspice 26.0.1 for Windows
Circuit: H:\Mon Drive\2025-2026_polytech_sorbonne\S6\UE-Electronique\Composants_et_circuit_microelectrique\TP\Sujet_TP_YEK\Simulation\Simu_D\Simu_D.net
Start Time: Fri Mar 20 11:22:09 2026
solver = Normal
Maximum thread count: 12
tnom = 27
temp = 27
method = trap
.step Vbe=0.6 
.step Vbe=0.7 
.step Vbe=0.8 
Total elapsed time: 0.583 seconds.

Files loaded:
H:\Mon Drive\2025-2026_polytech_sorbonne\S6\UE-Electronique\Composants_et_circuit_microelectrique\TP\Sujet_TP_YEK\Simulation\Simu_D\Simu_D.net
C:\Users\elkat\AppData\Local\LTspice\lib\cmp\standard.bjt

