LTspice 26.0.1 for Windows
Circuit: H:\Mon Drive\2025-2026_polytech_sorbonne\S6\UE-Electronique\Composants_et_circuit_microelectrique\TP\Sujet TP et YEK\Modèles SPICE et spécifications des composants\1N4003.lib
Start Time: Sat Mar 14 20:36:16 2026
No analysis specified.