LTspice 26.0.1 for Windows
Circuit: H:\Mon Drive\2025-2026_polytech_sorbonne\S6\UE-Electronique\Composants_et_circuit_microelectrique\TP\Sujet_TP_YEK\Simulation\Simu_B_b\1N4733ATR.lib
Start Time: Tue Mar 17 22:32:09 2026
No analysis specified.