LTspice 26.0.1 for Windows
Circuit: H:\Mon Drive\2025-2026_polytech_sorbonne\S6\UE-Electronique\Composants_et_circuit_microelectrique\TP\Sujet_TP_YEK\Simulation\Simu_B\Simu_B.net
Start Time: Tue Mar 17 22:22:13 2026
solver = Normal
Maximum thread count: 12
tnom = 27
temp = 27
method = trap
.OP point found by inspection.
.OP point found by inspection.
Total elapsed time: 0.683 seconds.

Files loaded:
H:\Mon Drive\2025-2026_polytech_sorbonne\S6\UE-Electronique\Composants_et_circuit_microelectrique\TP\Sujet_TP_YEK\Simulation\Simu_B\Simu_B.net
C:\Users\elkat\AppData\Local\LTspice\lib\cmp\standard.dio

